Circuit: * C:\Dokumente und Einstellungen\Einstein1\Desktop\Michael\Laser-ext-setpoint\ext-setpoint.asc


Date: Tue Apr 06 16:58:55 2010
Total elapsed time: 0.219 seconds.

tnom = 27
temp = 27
method = trap
totiter = 213
traniter = 0
tranpoints = 0
accept = 0
rejected = 0
matrix size = 85
fillins = 120
solver = Normal
Matrix Compiler1: 11,7 KB object code size  11.9/9.7/[4.4]
Matrix Compiler2: 9,36 KB object code size  5.7/6.6/[3.0]


